@<TRIPOS>MOLECULE
*****
 43 45 0 0 0
SMALL
GASTEIGER

@<TRIPOS>ATOM
      1 C           0.6159   -2.6425   -1.1185 C.2     1  UNL1        0.0000
      2 C          -0.0757   -3.2634   -0.0610 C.2     1  UNL1        0.0000
      3 C          -0.7323   -2.5623    0.9686 C.2     1  UNL1        0.0000
      4 H          -0.1040   -4.3527   -0.0375 H       1  UNL1        0.0000
      5 C          -2.6732    0.8323   -1.0741 C.2     1  UNL1        0.0000
      6 C          -1.8601    2.0715    0.9219 C.2     1  UNL1        0.0000
      7 C          -2.8311    1.7964   -0.0598 C.2     1  UNL1        0.0000
      8 H          -3.7611    2.3638   -0.0325 H       1  UNL1        0.0000
      9 C           2.7191    0.7543    0.7655 C.2     1  UNL1        0.0000
     10 C           1.9626    1.9289   -1.2917 C.2     1  UNL1        0.0000
     11 C           2.9199    1.6586   -0.2950 C.2     1  UNL1        0.0000
     12 H           3.8747    2.1811   -0.3483 H       1  UNL1        0.0000
     13 GA          0.0071    0.0622   -0.1366 Ga      1  UNL1        0.0000
     14 O          -1.6482    0.0939   -1.2285 O.2     1  UNL1        0.0000
     15 O          -0.7302    1.4930    1.0160 O.2     1  UNL1        0.0000
     16 O           0.7277   -1.3850   -1.2816 O.2     1  UNL1        0.0000
     17 O          -0.7787   -1.2950    1.0774 O.2     1  UNL1        0.0000
     18 O           1.6623    0.0710    0.9549 O.2     1  UNL1        0.0000
     19 O           0.8062    1.4011   -1.3592 O.2     1  UNL1        0.0000
     20 C           3.8131    0.5375    1.7852 C.3     1  UNL1        0.0000
     21 H           4.1149   -0.5228    1.7709 H       1  UNL1        0.0000
     22 H           4.6943    1.1691    1.6099 H       1  UNL1        0.0000
     23 H           3.4103    0.7381    2.7912 H       1  UNL1        0.0000
     24 C           2.2800    2.9164   -2.3901 C.3     1  UNL1        0.0000
     25 H           3.2795    3.3609   -2.2919 H       1  UNL1        0.0000
     26 H           2.1998    2.4062   -3.3640 H       1  UNL1        0.0000
     27 H           1.5210    3.7157   -2.3874 H       1  UNL1        0.0000
     28 C          -2.1262    3.1290    1.9675 C.3     1  UNL1        0.0000
     29 H          -3.1109    3.6030    1.8572 H       1  UNL1        0.0000
     30 H          -2.0483    2.6723    2.9676 H       1  UNL1        0.0000
     31 H          -1.3399    3.8995    1.9093 H       1  UNL1        0.0000
     32 C          -3.7774    0.6160   -2.0826 C.3     1  UNL1        0.0000
     33 H          -4.6351    1.2846   -1.9295 H       1  UNL1        0.0000
     34 H          -3.3715    0.7645   -3.0965 H       1  UNL1        0.0000
     35 H          -4.1158   -0.4318   -2.0281 H       1  UNL1        0.0000
     36 C           1.3020   -3.4880   -2.1660 C.3     1  UNL1        0.0000
     37 H           1.1563   -4.5656   -2.0111 H       1  UNL1        0.0000
     38 H           0.9245   -3.2046   -3.1619 H       1  UNL1        0.0000
     39 H           2.3812   -3.2620   -2.1598 H       1  UNL1        0.0000
     40 C          -1.4597   -3.3257    2.0508 C.3     1  UNL1        0.0000
     41 H          -1.3633   -4.3764    1.8724 H       1  UNL1        0.0000
     42 H          -2.4952   -3.0562    2.0428 H       1  UNL1        0.0000
     43 H          -1.0359   -3.0853    3.0034 H       1  UNL1        0.0000
@<TRIPOS>BOND
     1    26    24    1
     2    38    36    1
     3    34    32    1
     4    24    27    1
     5    24    25    1
     6    24    10    1
     7    36    39    1
     8    36    37    1
     9    36     1    1
    10    32    35    1
    11    32    33    1
    12    32     5    1
    13    19    10    1
    14    19    13    1
    15    10    11    2
    16    16     1    1
    17    16    13    1
    18    14     5    2
    19     1     2    2
    20     5     7    1
    21    12    11    1
    22    11     9    1
    23    13    15    1
    24     2     4    1
    25     2     3    1
    26     7     8    1
    27     7     6    2
    28     9    18    2
    29     9    20    1
    30     6    15    1
    31     6    28    1
    32     3    17    2
    33     3    40    1
    34    22    20    1
    35    21    20    1
    36    20    23    1
    37    29    28    1
    38    31    28    1
    39    28    30    1
    40    40    41    1
    41    40    42    1
    42    40    43    1
    43    13    14    1
    44    13    17    1
    45    13    18    1
